testData/IEEE300/testCases/IEEE300Bus_modified_noHVDC_v2_zone1scalepercent_12.raw
0,   100.00, 30, 0, 1,  60.00     / PSS(R)E 30 RAW created by rawd30  MON, NOV 23 2020  14:25
 00/00/01                      100.0  0    0
 0
     1,'1           ', 115.0000,1,     0.000,     0.000,   1,   1,1.01548,   4.3036,   1
     2,'2           ', 115.0000,1,     0.000,     0.000,   1,   1,1.03106,   6.5057,   1
     3,'3           ', 230.0000,1,     0.000,     0.000,   1,   1,0.98575,   7.5186,   1
     4,'4           ', 345.0000,1,     0.000,     0.000,   1,   1,1.01533,   5.0856,   1
     5,'5           ', 115.0000,1,     0.000,     0.000,   1,   1,1.00289,   2.6644,   1
     6,'6           ', 115.0000,1,     0.000,     0.000,   1,   1,1.02459,   5.9125,   1
     7,'7           ', 230.0000,1,     0.000,     0.000,   1,   1,0.98235,   6.7936,   1
     8,'8           ', 115.0000,1,     0.000,     0.000,   1,   1,1.01529,  -1.2613,   1
     9,'9           ', 115.0000,1,     0.000,     0.000,   1,   1,0.98814,  -0.6181,   1
    10,'10          ', 230.0000,1,     0.000,     0.000,   1,   1,1.02049,  -2.1979,   1
    11,'11          ', 115.0000,1,     0.000,     0.000,   1,   1,0.99973,  -1.7644,   1
    12,'12          ', 230.0000,1,     0.000,     0.000,   1,   1,0.98613,   3.9275,   1
    13,'13          ', 115.0000,1,     0.000,     0.000,   1,   1,0.99161,  -6.0976,   1
    14,'14          ', 115.0000,1,     0.000,     0.000,   1,   1,0.97245, -10.8946,   1
    15,'15          ', 115.0000,1,     0.000,     0.000,   1,   1,1.00901, -15.6604,   1
    16,'16          ', 345.0000,1,     0.000,     0.000,   1,   1,1.00457,  -4.2553,   1
    17,'17          ', 115.0000,1,     0.000,     0.000,   1,   1,1.02832, -24.9187,   1
    19,'19          ', 230.0000,1,     0.000,     0.000,   1,   1,0.96295,  -2.9111,   1
    20,'20          ', 115.0000,1,     0.000,     0.000,   1,   1,1.00098,  -8.8181,   1
    21,'21          ', 230.0000,1,     0.000,     0.000,   1,   1,0.96240,  -2.6236,   1
    22,'22          ', 115.0000,1,     0.000,     0.000,   1,   1,0.98821,  -8.7306,   1
    23,'23          ', 115.0000,1,     0.000,     0.000,   1,   1,1.04522,  -2.2709,   1
    24,'24          ', 230.0000,1,     0.000,     0.000,   1,   1,0.99892,   1.0511,   1
    25,'25          ', 115.0000,1,     0.000,     0.000,   1,   1,1.00672,  -5.5816,   1
    26,'26          ', 115.0000,1,     0.000,     0.000,   1,   1,0.97284,  -9.7066,   1
    27,'27          ', 115.0000,1,     0.000,     0.000,   1,   1,0.94457, -13.5523,   1
    33,'33          ', 115.0000,1,     0.000,     0.000,   1,   1,0.99679, -15.9240,   1
    34,'34          ', 345.0000,1,     0.000,     0.000,   1,   1,1.01593,  -9.0506,   1
    35,'35          ', 115.0000,1,     0.000,     0.000,   1,   1,0.96975, -24.8354,   1
    36,'36          ', 230.0000,1,     0.000,     0.000,   1,   1,0.98077, -19.2800,   1
    37,'37          ', 115.0000,1,     0.000,     0.000,   1,   1,0.99642, -15.5341,   1
    38,'38          ', 115.0000,1,     0.000,     0.000,   1,   1,0.99126, -16.7009,   1
    39,'39          ', 345.0000,1,     0.000,     0.000,   1,   1,1.03346,  -6.3342,   1
    40,'40          ', 115.0000,1,     0.000,     0.000,   1,   1,0.99433, -17.5534,   1
    41,'41          ', 115.0000,1,     0.000,     0.000,   1,   1,1.00419, -13.5395,   1
    42,'42          ', 345.0000,1,     0.000,     0.000,   1,   1,1.02110,  -8.2228,   1
    43,'43          ', 115.0000,1,     0.000,     0.000,   1,   1,0.96502, -21.2981,   1
    44,'44          ', 115.0000,1,     0.000,     0.000,   1,   1,0.97945, -19.8307,   1
    45,'45          ', 230.0000,1,     0.000,     0.000,   1,   1,0.99280, -14.9273,   1
    46,'46          ', 345.0000,1,     0.000,     0.000,   1,   1,1.01074, -10.8895,   1
    47,'47          ', 115.0000,1,     0.000,     0.000,   1,   1,0.93910, -26.5399,   1
    48,'48          ', 115.0000,1,     0.000,     0.000,   1,   1,0.97371, -24.7086,   1
    49,'49          ', 115.0000,1,     0.000,     0.000,   1,   1,1.04054,  -3.6051,   1
    51,'51          ', 115.0000,1,     0.000,     0.000,   1,   1,0.99977, -10.6346,   1
    52,'52          ', 115.0000,1,     0.000,     0.000,   1,   1,0.95854, -16.2368,   1
    53,'53          ', 115.0000,1,     0.000,     0.000,   1,   1,0.95782, -22.4559,   1
    54,'54          ', 115.0000,1,     0.000,     0.000,   1,   1,0.97196, -20.2583,   1
    55,'55          ', 115.0000,1,     0.000,     0.000,   1,   1,0.98597, -16.8055,   1
    57,'57          ', 115.0000,1,     0.000,     0.000,   1,   1,1.01557, -13.4774,   1
    58,'58          ', 115.0000,1,     0.000,     0.000,   1,   1,0.96297, -10.8062,   1
    59,'59          ', 115.0000,1,     0.000,     0.000,   1,   1,0.94711,  -9.8160,   1
    60,'60          ', 230.0000,1,     0.000,     0.000,   1,   1,0.99852,  -9.0361,   1
    61,'61          ', 115.0000,1,     0.000,     0.000,   1,   1,0.96628,  -7.1120,   1
    62,'62          ', 230.0000,1,     0.000,     0.000,   1,   1,0.99858,   0.4639,   1
    63,'63          ', 115.0000,1,     0.000,     0.000,   1,   1,0.95829, -20.2378,   1
    64,'64          ', 230.0000,1,     0.000,     0.000,   1,   1,0.93701, -14.5687,   1
    69,'69          ', 115.0000,1,     0.000,     0.000,   1,   1,0.93669, -20.6745,   1
    70,'70          ', 115.0000,1,     0.000,     0.000,   1,   1,0.92738, -36.8452,   1
    71,'71          ', 115.0000,1,     0.000,     0.000,   1,   1,0.95676, -31.3072,   1
    72,'72          ', 115.0000,1,     0.000,     0.000,   1,   1,0.95343, -27.4684,   1
    73,'73          ', 115.0000,1,     0.000,     0.000,   1,   1,0.95219, -25.6038,   1
    74,'74          ', 230.0000,1,     0.000,     0.000,   1,   1,0.96878, -20.1301,   1
    76,'76          ', 115.0000,1,     0.000,     0.000,   1,   1,0.96318, -26.4940,   1
    77,'77          ', 115.0000,1,     0.000,     0.000,   1,   1,0.97325, -23.7182,   1
    78,'78          ', 115.0000,1,     0.000,     0.000,   1,   1,0.97927, -22.6847,   1
    79,'79          ', 115.0000,1,     0.000,     0.000,   1,   1,0.96388, -23.4552,   1
    80,'80          ', 115.0000,1,     0.000,     0.000,   1,   1,0.96958, -20.4925,   1
    81,'81          ', 345.0000,1,     0.000,     0.000,   1,   1,1.01211, -11.1138,   1
    84,'84          ', 115.0000,1,     0.000,     0.000,   1,   1,1.02498, -15.1359,   1
    85,'85          ', 230.0000,1,     0.000,     0.000,   1,   1,0.97474, -30.9349,   1
    86,'86          ', 230.0000,1,     0.000,     0.000,   1,   1,0.96922, -26.2915,   1
    87,'87          ', 230.0000,1,     0.000,     0.000,   1,   1,0.96197, -16.5796,   1
    88,'88          ', 230.0000,1,     0.000,     0.000,   1,   1,0.99286, -16.2207,   1
    89,'89          ', 115.0000,1,     0.000,     0.000,   1,   1,1.01398, -20.2144,   1
    90,'90          ', 115.0000,1,     0.000,     0.000,   1,   1,1.00317, -19.0753,   1
    91,'91          ', 115.0000,1,     0.000,     0.000,   1,   1,1.05199, -20.2753,   1
    92,'92          ', 115.0000,1,     0.000,     0.000,   1,   1,1.05199, -15.9473,   1
    94,'94          ', 115.0000,1,     0.000,     0.000,   1,   1,0.97017, -19.2852,   1
    97,'97          ', 115.0000,1,     0.000,     0.000,   1,   1,1.00910, -25.4597,   1
    98,'98          ', 115.0000,1,     0.000,     0.000,   1,   1,1.00000, -28.2561,   1
    99,'99          ', 115.0000,1,     0.000,     0.000,   1,   1,0.98708, -34.2534,   1
   100,'100         ', 115.0000,1,     0.000,     0.000,   1,   1,0.99811, -27.3718,   1
   102,'102         ', 115.0000,1,     0.000,     0.000,   1,   1,0.98957, -28.2210,   1
   103,'103         ', 115.0000,1,     0.000,     0.000,   1,   1,1.01931, -23.3274,   1
   104,'104         ', 115.0000,1,     0.000,     0.000,   1,   1,0.98704, -30.8813,   1
   105,'105         ', 115.0000,1,     0.000,     0.000,   1,   1,1.00995, -23.9472,   1
   107,'107         ', 115.0000,1,     0.000,     0.000,   1,   1,0.98966, -26.6619,   1
   108,'108         ', 115.0000,1,     0.000,     0.000,   1,   1,0.98999, -34.4275,   1
   109,'109         ', 115.0000,1,     0.000,     0.000,   1,   1,0.94097, -37.0813,   1
   110,'110         ', 115.0000,1,     0.000,     0.000,   1,   1,0.94508, -37.4727,   1
   112,'112         ', 115.0000,1,     0.000,     0.000,   1,   1,0.93008, -36.6085,   1
   113,'113         ', 115.0000,1,     0.000,     0.000,   1,   1,0.92896, -31.2168,   1
   114,'114         ', 115.0000,1,     0.000,     0.000,   1,   1,0.93266, -35.7164,   1
   115,'115         ', 115.0000,1,     0.000,     0.000,   2,   2,0.92432,  27.8654,   1
   116,'116         ', 115.0000,1,     0.000,     0.000,   2,   2,1.03448,  34.9529,   1
   117,'117         ', 115.0000,1,     0.000,   325.000,   2,   2,0.91046,  41.5846,   1
   118,'118         ', 115.0000,1,     0.000,     0.000,   2,   2,0.90512,  42.8167,   1
   119,'119         ', 115.0000,1,     0.000,     0.000,   2,   2,1.04337,  58.8030,   1
   120,'120         ', 115.0000,1,     0.000,    55.000,   2,   2,1.01388,  54.0449,   1
   121,'121         ', 115.0000,1,     0.000,     0.000,   2,   2,0.84928,  31.7152,   1
   122,'122         ', 115.0000,1,     0.000,     0.000,   2,   2,0.90492,  25.1538,   1
   123,'123         ', 115.0000,1,     0.000,     0.000,   2,   2,0.97023,  19.9330,   1
   124,'124         ', 115.0000,1,     0.000,     0.000,   2,   2,1.02328,  31.6235,   1
   125,'125         ', 115.0000,1,     0.000,     0.000,   2,   2,1.01026,   8.3983,   1
   126,'126         ', 115.0000,1,     0.000,     0.000,   2,   2,0.97501,  12.4345,   1
   127,'127         ', 230.0000,1,     0.000,     0.000,   2,   2,0.99188,   6.8645,   1
   128,'128         ', 230.0000,1,     0.000,     0.000,   2,   2,1.00251,   7.4979,   1
   129,'129         ', 230.0000,1,     0.000,     0.000,   2,   2,1.00173,   8.2066,   1
   130,'130         ', 230.0000,1,     0.000,     0.000,   2,   2,1.01394,  12.2118,   1
   131,'131         ', 230.0000,1,     0.000,     0.000,   2,   2,0.97888,   8.3297,   1
   132,'132         ', 230.0000,1,     0.000,     0.000,   2,   2,1.00202,  11.1891,   1
   133,'133         ', 230.0000,1,     0.000,     0.000,   2,   2,1.00124,   6.5298,   1
   134,'134         ', 230.0000,1,     0.000,     0.000,   2,   2,1.01803,   8.9981,   1
   135,'135         ', 230.0000,1,     0.000,     0.000,   2,   2,1.01674,   9.6101,   1
   136,'136         ', 230.0000,1,     0.000,     0.000,   2,   2,1.04443,  16.5215,   1
   137,'137         ', 230.0000,1,     0.000,     0.000,   2,   2,1.04437,   9.3675,   1
   138,'138         ', 230.0000,1,     0.000,     0.000,   2,   2,1.05496,   0.1466,   1
   139,'139         ', 115.0000,1,     0.000,     0.000,   2,   2,1.01048,   8.9050,   1
   140,'140         ', 230.0000,1,     0.000,     0.000,   2,   2,1.04135,   8.0436,   1
   141,'141         ', 230.0000,1,     0.000,     0.000,   2,   2,1.05099,  12.7121,   1
   142,'142         ', 230.0000,1,     0.000,     0.000,   2,   2,1.01493,   8.1510,   1
   143,'143         ', 230.0000,1,     0.000,     0.000,   2,   2,1.04348,  14.2351,   1
   144,'144         ', 230.0000,1,     0.000,     0.000,   2,   2,0.99974,   1.5428,   1
   145,'145         ', 230.0000,1,     0.000,     0.000,   2,   2,1.00774,  11.2502,   1
   146,'146         ', 230.0000,1,     0.000,     0.000,   2,   2,1.05280,  16.5745,   1
   147,'147         ', 230.0000,1,     0.000,     0.000,   2,   2,1.05280,  21.1024,   1
   148,'148         ', 230.0000,1,     0.000,     0.000,   2,   2,1.05715,  10.7600,   1
   149,'149         ', 230.0000,1,     0.000,     0.000,   2,   2,1.07350,  16.2316,   1
   150,'150         ', 230.0000,1,     0.000,     0.000,   2,   2,0.98014,   9.1091,   1
   151,'151         ', 230.0000,1,     0.000,     0.000,   2,   2,1.00174,  11.0924,   1
   152,'152         ', 230.0000,1,     0.000,     0.000,   2,   2,1.05350,  25.1884,   1
   153,'153         ', 230.0000,1,     0.000,     0.000,   2,   2,1.04350,  26.6114,   1
   154,'154         ', 115.0000,1,     0.000,    34.500,   2,   2,0.96730,  13.9272,   1
   155,'155         ', 230.0000,1,     0.000,     0.000,   2,   2,1.01106,  22.0377,   1
   156,'156         ', 115.0000,1,     0.000,     0.000,   2,   2,0.96300,  20.4396,   1
   157,'157         ', 230.0000,1,     0.000,     0.000,   2,   2,0.91850,  26.5937,   1
   158,'158         ', 230.0000,1,     0.000,     0.000,   2,   2,0.94223,  25.7964,   1
   159,'159         ', 230.0000,1,     0.000,     0.000,   2,   2,0.90777,  31.1498,   1
   160,'160         ', 230.0000,1,     0.000,     0.000,   2,   2,0.97689,  28.9528,   1
   161,'161         ', 230.0000,1,     0.000,     0.000,   2,   2,1.03358,  24.7139,   1
   162,'162         ', 230.0000,1,     0.000,     0.000,   2,   2,0.97687,  35.0980,   1
   163,'163         ', 230.0000,1,     0.000,     0.000,   2,   2,1.02800,  15.4132,   1
   164,'164         ', 230.0000,1,     0.000,  -212.000,   2,   2,0.97109,  24.7547,   1
   165,'165         ', 230.0000,1,     0.000,     0.000,   2,   2,0.98991,  44.0232,   1
   166,'166         ', 230.0000,1,     0.000,  -103.000,   2,   2,0.99087,  48.4594,   1
   167,'167         ', 230.0000,1,     0.000,     0.000,   2,   2,0.97062,   4.7269,   1
   168,'168         ', 230.0000,1,     0.000,     0.000,   2,   2,1.00251,   7.4874,   1
   169,'169         ', 230.0000,1,     0.000,     0.000,   2,   2,0.98483,   6.1070,   1
   170,'170         ', 115.0000,1,     0.000,     0.000,   2,   2,0.92899,   7.9265,   1
   171,'171         ', 115.0000,1,     0.000,     0.000,   2,   2,0.98288,   2.0506,   1
   172,'172         ', 115.0000,1,     0.000,     0.000,   2,   2,1.02315,   6.2692,   1
   173,'173         ', 115.0000,1,     0.000,    53.000,   2,   2,0.98142,  -0.4517,   1
   174,'174         ', 115.0000,1,     0.000,     0.000,   2,   2,1.06171,   9.9001,   1
   175,'175         ', 115.0000,1,     0.000,     0.000,   2,   2,0.97264,   4.1064,   1
   176,'176         ', 115.0000,1,     0.000,     0.000,   2,   2,1.05220,  18.0545,   1
   177,'177         ', 115.0000,1,     0.000,     0.000,   2,   2,1.00770,  13.3929,   1
   178,'178         ', 115.0000,1,     0.000,     0.000,   2,   2,0.93926,   5.0389,   1
   179,'179         ', 115.0000,1,     0.000,    45.000,   2,   2,0.96999,   1.8841,   1
   180,'180         ', 115.0000,1,     0.000,     0.000,   2,   2,0.97884,   8.3856,   1
   181,'181         ', 230.0000,1,     0.000,     0.000,   2,   2,1.04831,   9.0002,   1
   182,'182         ', 230.0000,1,     0.000,     0.000,   2,   2,1.04361,   7.6741,   1
   183,'183         ', 115.0000,1,     0.000,     0.000,   2,   2,0.97179,  23.2020,   1
   184,'184         ', 230.0000,1,     0.000,     0.000,   2,   2,1.03676,  10.6694,   1
   185,'185         ', 230.0000,1,     0.000,     0.000,   2,   2,1.05220,  13.4786,   1
   186,'186         ', 230.0000,1,     0.000,     0.000,   2,   2,1.06497,  13.1530,   1
   187,'187         ', 230.0000,1,     0.000,     0.000,   2,   2,1.06497,  12.0869,   1
   188,'188         ', 230.0000,1,     0.000,     0.000,   2,   2,1.05034,   9.7355,   1
   189,'189         ',  66.0000,1,     0.000,     0.000,   3,   3,0.99016, -17.5018,   1
   190,'190         ', 345.0000,1,     0.000,  -150.000,   3,   3,1.05510,  -2.3802,   1
   191,'191         ', 230.0000,1,     0.000,     0.000,   3,   3,1.04341,  49.0835,   1
   192,'192         ', 230.0000,1,     0.000,     0.000,   3,   3,0.89462,  20.7566,   1
   193,'192         ',  66.0000,1,     0.000,     0.000,   3,   3,0.97683, -19.1283,   1
   194,'194         ', 345.0000,1,     0.000,     0.000,   3,   3,1.03388,  -6.0953,   1
   195,'195         ', 345.0000,1,     0.000,     0.000,   3,   3,1.02122,  -8.2325,   1
   196,'196         ', 115.0000,1,     0.000,     0.000,   3,   3,0.95546, -15.8433,   1
   197,'197         ', 115.0000,1,     0.000,     0.000,   3,   3,0.98112, -13.7589,   1
   198,'198         ', 115.0000,1,     0.000,     0.000,   3,   3,1.01499, -10.1514,   1
   199,'199         ', 115.0000,1,     0.000,     0.000,   3,   3,0.94744, -15.3911,   1
   200,'200         ', 115.0000,1,     0.000,     0.000,   3,   3,0.95387, -14.6107,   1
   201,'201         ',  66.0000,1,     0.000,     0.000,   1,   1,0.93237, -22.8554,   1
   202,'202         ',  66.0000,1,     0.000,     0.000,   3,   3,0.97996, -15.1540,   1
   203,'203         ', 115.0000,1,     0.000,     0.000,   3,   3,0.99798, -12.0351,   1
   204,'204         ',  66.0000,1,     0.000,     0.000,   3,   3,0.95047, -19.2025,   1
   205,'205         ',  66.0000,1,     0.000,     0.000,   3,   3,0.96405, -19.7647,   1
   206,'206         ',  66.0000,1,     0.000,     0.000,   3,   3,0.95180, -27.2046,   1
   207,'207         ',  66.0000,1,     0.000,     0.000,   1,   1,0.95195, -30.1425,   1
   208,'208         ',  66.0000,1,     0.000,     0.000,   3,   3,0.98015, -19.3320,   1
   209,'209         ',  66.0000,1,     0.000,     0.000,   3,   3,0.99706, -16.7779,   1
   210,'210         ', 115.0000,1,     0.000,     0.000,   3,   3,0.97156, -14.0252,   1
   211,'211         ', 115.0000,1,     0.000,     0.000,   3,   3,0.98977, -13.1652,   1
   212,'212         ', 138.0000,1,     0.000,     0.000,   3,   3,1.00208, -11.2230,   1
   213,'213         ',  16.5000,1,     0.000,     0.000,   3,   3,1.01000,   5.0085,   1
   214,'214         ', 138.0000,1,     0.000,     0.000,   3,   3,0.99056,  -1.5422,   1
   215,'215         ', 138.0000,1,     0.000,     0.000,   3,   3,0.98341,  -4.6775,   1
   216,'216         ', 138.0000,1,     0.000,     0.000,   3,   3,0.97292,  -6.1649,   1
   217,'217         ', 138.0000,1,     0.000,     0.000,   3,   3,1.01832,  -4.2713,   1
   218,'218         ', 138.0000,1,     0.000,     0.000,   3,   3,1.00417,  -4.3563,   1
...
 0 /End of Bus data, Begin Load data
     1,'1 ',1,   1,   1,   127.084,    69.190,     0.000,     0.000,     0.000,     0.000,   1
     2,'1 ',1,   1,   1,    79.075,    21.181,     0.000,     0.000,     0.000,     0.000,   1
     3,'1 ',1,   1,   1,    28.241,     0.000,     0.000,     0.000,     0.000,     0.000,   1
     5,'1 ',1,   1,   1,   498.453,   183.566,     0.000,     0.000,     0.000,     0.000,   1
     6,'1 ',1,   1,   1,   169.446,    57.894,     0.000,     0.000,     0.000,     0.000,   1
     8,'1 ',1,   1,   1,    81.899,    19.769,     0.000,     0.000,     0.000,     0.000,   1
     9,'1 ',1,   1,   1,   135.557,    60.718,     0.000,     0.000,     0.000,     0.000,   1
    10,'1 ',1,   1,   1,   208.983,    46.598,     0.000,     0.000,     0.000,     0.000,   1
    11,'1 ',1,   1,   1,   117.200,    29.653,     0.000,     0.000,     0.000,     0.000,   1
    13,'1 ',1,   1,   1,    81.899,    14.120,     0.000,     0.000,     0.000,     0.000,   1
    14,'1 ',1,   1,   1,   225.928,    84.723,     0.000,     0.000,     0.000,     0.000,   1
    15,'1 ',1,   1,   1,   178.907,    32.477,     0.000,     0.000,     0.000,     0.000,   1
    17,'1 ',1,   1,   1,   792.159,   310.651,     0.000,     0.000,     0.000,     0.000,   1
    20,'1 ',1,   1,   1,   840.169,   169.446,     0.000,     0.000,     0.000,     0.000,   1
    21,'1 ',1,   1,   1,   108.728,     1.412,     0.000,     0.000,     0.000,     0.000,   1
    22,'1 ',1,   1,   1,   114.376,    32.477,     0.000,     0.000,     0.000,     0.000,   1
    23,'1 ',1,   1,   1,    29.653,     9.884,     0.000,     0.000,     0.000,     0.000,   1
    25,'1 ',1,   1,   1,    63.542,    16.945,     0.000,     0.000,     0.000,     0.000,   1
    26,'1 ',1,   1,   1,    39.537,    12.708,     0.000,     0.000,     0.000,     0.000,   1
    27,'1 ',1,   1,   1,    97.431,    18.357,     0.000,     0.000,     0.000,     0.000,   1
    33,'1 ',1,   1,   1,    77.663,     8.472,     0.000,     0.000,     0.000,     0.000,   1
    37,'1 ',1,   1,   1,   120.024,    45.186,     0.000,     0.000,     0.000,     0.000,   1
    38,'1 ',1,   1,   1,   218.868,    25.417,     0.000,     0.000,     0.000,     0.000,   1
    40,'1 ',1,   1,   1,    64.954,   -29.653,     0.000,     0.000,     0.000,     0.000,   1
    41,'1 ',1,   1,   1,   121.436,     0.000,     0.000,     0.000,     0.000,     0.000,   1
    43,'1 ',1,   1,   1,    55.070,    12.708,     0.000,     0.000,     0.000,     0.000,   1
    44,'1 ',1,   1,   1,   275.349,    40.949,     0.000,     0.000,     0.000,     0.000,   1
    47,'1 ',1,   1,   1,    81.899,    16.662,     0.000,     0.000,     0.000,     0.000,   1
    48,'1 ',1,   1,   1,    57.894,    26.829,     0.000,     0.000,     0.000,     0.000,   1
    49,'1 ',1,   1,   1,   129.908,    36.713,     0.000,     0.000,     0.000,     0.000,   1
    51,'1 ',1,   1,   1,    -7.060,     7.060,     0.000,     0.000,     0.000,     0.000,   1
    52,'1 ',1,   1,   1,    86.135,    39.537,     0.000,     0.000,     0.000,     0.000,   1
    53,'1 ',1,   1,   1,    97.431,     4.236,     0.000,     0.000,     0.000,     0.000,   1
    54,'1 ',1,   1,   1,    14.120,     1.412,     0.000,     0.000,     0.000,     0.000,   1
    55,'1 ',1,   1,   1,    31.065,    14.120,     0.000,     0.000,     0.000,     0.000,   1
    57,'1 ',1,   1,   1,   138.381,    28.241,     0.000,     0.000,     0.000,     0.000,   1
    58,'1 ',1,   1,   1,    19.769,     1.412,     0.000,     0.000,     0.000,     0.000,   1
    59,'1 ',1,   1,   1,   307.827,   149.677,     0.000,     0.000,     0.000,     0.000,   1
    61,'1 ',1,   1,   1,   320.535,   155.325,     0.000,     0.000,     0.000,     0.000,   1
    63,'1 ',1,   1,   1,    98.843,    42.361,     0.000,     0.000,     0.000,     0.000,   1
    70,'1 ',1,   1,   1,    56.000,    20.000,     0.000,     0.000,     0.000,     0.000,   1
    71,'1 ',1,   1,   1,   163.798,    53.658,     0.000,     0.000,     0.000,     0.000,   1
    72,'1 ',1,   1,   1,    80.487,    26.829,     0.000,     0.000,     0.000,     0.000,   1
    73,'1 ',1,   1,   1,   316.299,   100.255,     0.000,     0.000,     0.000,     0.000,   1
    76,'1 ',1,   1,   1,   293.706,   151.089,     0.000,     0.000,     0.000,     0.000,   1
    77,'1 ',1,   1,   1,   104.492,    39.537,     0.000,     0.000,     0.000,     0.000,   1
    79,'1 ',1,   1,   1,    67.778,    19.769,     0.000,     0.000,     0.000,     0.000,   1
    80,'1 ',1,   1,   1,    39.537,     9.884,     0.000,     0.000,     0.000,     0.000,   1
    84,'1 ',1,   1,   1,    52.246,    18.357,     0.000,     0.000,     0.000,     0.000,   1
    89,'1 ',1,   1,   1,    62.413,     0.000,     0.000,     0.000,     0.000,     0.000,   1
    90,'1 ',1,   1,   1,    93.195,     0.000,     0.000,     0.000,     0.000,     0.000,   1
    91,'1 ',1,   1,   1,    24.570,     0.000,     0.000,     0.000,     0.000,     0.000,   1
    92,'1 ',1,   1,   1,    22.310,     0.000,     0.000,     0.000,     0.000,     0.000,   1
    94,'1 ',1,   1,   1,    85.147,     0.000,     0.000,     0.000,     0.000,     0.000,   1
    97,'1 ',1,   1,   1,    56.341,     0.000,     0.000,     0.000,     0.000,     0.000,   1
    98,'1 ',1,   1,   1,    94.184,     0.000,     0.000,     0.000,     0.000,     0.000,   1
    99,'1 ',1,   1,   1,   117.906,     0.000,     0.000,     0.000,     0.000,     0.000,   1
   102,'1 ',1,   1,   1,   109.857,     0.000,     0.000,     0.000,     0.000,     0.000,   1
   103,'1 ',1,   1,   1,    45.186,     0.000,     0.000,     0.000,     0.000,     0.000,   1
   104,'1 ',1,   1,   1,    12.144,     0.000,     0.000,     0.000,     0.000,     0.000,   1
   105,'1 ',1,   1,   1,    70.038,     0.000,     0.000,     0.000,     0.000,     0.000,   1
   107,'1 ',1,   1,   1,     6.495,     0.000,     0.000,     0.000,     0.000,     0.000,   1
   108,'1 ',1,   1,   1,   158.291,     0.000,     0.000,     0.000,     0.000,     0.000,   1
   109,'1 ',1,   1,   1,    43.350,     0.000,     0.000,     0.000,     0.000,     0.000,   1
   110,'1 ',1,   1,   1,    88.959,     0.000,     0.000,     0.000,     0.000,     0.000,   1
   112,'1 ',1,   1,   1,    27.676,     0.000,     0.000,     0.000,     0.000,     0.000,   1
   113,'1 ',1,   1,   1,    27.000,     0.000,     0.000,     0.000,     0.000,     0.000,   1
   114,'1 ',1,   1,   1,    25.699,     0.000,     0.000,     0.000,     0.000,     0.000,   1
   118,'1 ',1,   2,   2,    14.100,   650.000,     0.000,     0.000,     0.000,     0.000,   1
   119,'1 ',1,   2,   2,   100.300,    34.400,     0.000,     0.000,     0.000,     0.000,   1
   121,'1 ',1,   2,   2,   535.000,    55.000,     0.000,     0.000,     0.000,     0.000,   1
   122,'1 ',1,   2,   2,   229.100,    11.800,     0.000,     0.000,     0.000,     0.000,   1
   123,'1 ',1,   2,   2,    78.000,     1.400,     0.000,     0.000,     0.000,     0.000,   1
   124,'1 ',1,   2,   2,   276.400,    59.300,     0.000,     0.000,     0.000,     0.000,   1
   125,'1 ',1,   2,   2,   514.800,    82.700,     0.000,     0.000,     0.000,     0.000,   1
   126,'1 ',1,   2,   2,    57.900,     5.100,     0.000,     0.000,     0.000,     0.000,   1
   127,'1 ',1,   2,   2,   380.800,    37.000,     0.000,     0.000,     0.000,     0.000,   1
   135,'1 ',1,   2,   2,   169.200,    41.600,     0.000,     0.000,     0.000,     0.000,   1
   136,'1 ',1,   2,   2,    55.200,    18.200,     0.000,     0.000,     0.000,     0.000,   1
   137,'1 ',1,   2,   2,   273.600,    99.800,     0.000,     0.000,     0.000,     0.000,   1
   138,'1 ',1,   2,   2,   826.700,   135.200,     0.000,     0.000,     0.000,     0.000,   1
   139,'1 ',1,   2,   2,   595.000,    83.300,     0.000,     0.000,     0.000,     0.000,   1
   140,'1 ',1,   2,   2,   387.700,   114.700,     0.000,     0.000,     0.000,     0.000,   1
   141,'1 ',1,   2,   2,   145.000,    58.000,     0.000,     0.000,     0.000,     0.000,   1
   142,'1 ',1,   2,   2,    56.500,    24.500,     0.000,     0.000,     0.000,     0.000,   1
   143,'1 ',1,   2,   2,    89.500,    35.500,     0.000,     0.000,     0.000,     0.000,   1
   145,'1 ',1,   2,   2,    24.000,    14.000,     0.000,     0.000,     0.000,     0.000,   1
   148,'1 ',1,   2,   2,    63.000,    25.000,     0.000,     0.000,     0.000,     0.000,   1
   152,'1 ',1,   2,   2,    17.000,     9.000,     0.000,     0.000,     0.000,     0.000,   1
   154,'1 ',1,   2,   2,    70.000,     5.000,     0.000,     0.000,     0.000,     0.000,   1
   155,'1 ',1,   2,   2,   200.000,    50.000,     0.000,     0.000,     0.000,     0.000,   1
   156,'1 ',1,   2,   2,    75.000,    50.000,     0.000,     0.000,     0.000,     0.000,   1
   157,'1 ',1,   2,   2,   123.500,    24.300,     0.000,     0.000,     0.000,     0.000,   1
   159,'1 ',1,   2,   2,    33.000,    16.500,     0.000,     0.000,     0.000,     0.000,   1
   161,'1 ',1,   2,   2,    35.000,    15.000,     0.000,     0.000,     0.000,     0.000,   1
   162,'1 ',1,   2,   2,    85.000,    24.000,     0.000,     0.000,     0.000,     0.000,   1
   163,'1 ',1,   2,   2,     0.000,     0.400,     0.000,     0.000,     0.000,     0.000,   1
   167,'1 ',1,   2,   2,   299.900,    95.700,     0.000,     0.000,     0.000,     0.000,   1
   170,'1 ',1,   2,   2,   481.800,   205.000,     0.000,     0.000,     0.000,     0.000,   1
   171,'1 ',1,   2,   2,   763.600,   291.100,     0.000,     0.000,     0.000,     0.000,   1
   172,'1 ',1,   2,   2,    26.500,     0.000,     0.000,     0.000,     0.000,     0.000,   1
   173,'1 ',1,   2,   2,   163.500,    43.000,     0.000,     0.000,     0.000,     0.000,   1
   175,'1 ',1,   2,   2,   176.000,    83.000,     0.000,     0.000,     0.000,     0.000,   1
   176,'1 ',1,   2,   2,     5.000,     4.000,     0.000,     0.000,     0.000,     0.000,   1
   177,'1 ',1,   2,   2,    28.000,    12.000,     0.000,     0.000,     0.000,     0.000,   1
   178,'1 ',1,   2,   2,   427.400,   173.600,     0.000,     0.000,     0.000,     0.000,   1
   179,'1 ',1,   2,   2,    74.000,    29.000,     0.000,     0.000,     0.000,     0.000,   1
   180,'1 ',1,   2,   2,    69.500,    49.300,     0.000,     0.000,     0.000,     0.000,   1
   181,'1 ',1,   2,   2,    73.400,     0.000,     0.000,     0.000,     0.000,     0.000,   1
   182,'1 ',1,   2,   2,   240.700,    89.000,     0.000,     0.000,     0.000,     0.000,   1
   183,'1 ',1,   2,   2,    40.000,     4.000,     0.000,     0.000,     0.000,     0.000,   1
   184,'1 ',1,   2,   2,   136.800,    16.600,     0.000,     0.000,     0.000,     0.000,   1
   186,'1 ',1,   2,   2,    59.800,    24.300,     0.000,     0.000,     0.000,     0.000,   1
   187,'1 ',1,   2,   2,    59.800,    24.300,     0.000,     0.000,     0.000,     0.000,   1
   188,'1 ',1,   2,   2,   182.600,    43.600,     0.000,     0.000,     0.000,     0.000,   1
   189,'1 ',1,   3,   3,     7.000,     2.000,     0.000,     0.000,     0.000,     0.000,   1
   191,'1 ',1,   3,   3,   489.000,    53.000,     0.000,     0.000,     0.000,     0.000,   1
   192,'1 ',1,   3,   3,   800.000,    72.000,     0.000,     0.000,     0.000,     0.000,   1
   196,'1 ',1,   3,   3,    10.000,     3.000,     0.000,     0.000,     0.000,     0.000,   1
   197,'1 ',1,   3,   3,    43.000,    14.000,     0.000,     0.000,     0.000,     0.000,   1
   198,'1 ',1,   3,   3,    64.000,    21.000,     0.000,     0.000,     0.000,     0.000,   1
   199,'1 ',1,   3,   3,    35.000,    12.000,     0.000,     0.000,     0.000,     0.000,   1
   200,'1 ',1,   3,   3,    27.000,    12.000,     0.000,     0.000,     0.000,     0.000,   1
   201,'1 ',1,   1,   1,    57.894,    19.769,     0.000,     0.000,     0.000,     0.000,   1
   202,'1 ',1,   3,   3,    38.000,    13.000,     0.000,     0.000,     0.000,     0.000,   1
   203,'1 ',1,   3,   3,    42.000,    14.000,     0.000,     0.000,     0.000,     0.000,   1
   204,'1 ',1,   3,   3,    72.000,    24.000,     0.000,     0.000,     0.000,     0.000,   1
   205,'1 ',1,   3,   3,     0.000,    -5.000,     0.000,     0.000,     0.000,     0.000,   1
   206,'1 ',1,   3,   3,    12.000,     2.000,     0.000,     0.000,     0.000,     0.000,   1
   207,'1 ',1,   1,   1,   -29.653,   -20.051,     0.000,     0.000,     0.000,     0.000,   1
   208,'1 ',1,   3,   3,     7.000,     2.000,     0.000,     0.000,     0.000,     0.000,   1
   209,'1 ',1,   3,   3,    38.000,    13.000,     0.000,     0.000,     0.000,     0.000,   1
   211,'1 ',1,   3,   3,    96.000,     7.000,     0.000,     0.000,     0.000,     0.000,   1
   214,'1 ',1,   3,   3,    22.000,    16.000,     0.000,     0.000,     0.000,     0.000,   1
   215,'1 ',1,   3,   3,    47.000,    26.000,     0.000,     0.000,     0.000,     0.000,   1
   216,'1 ',1,   3,   3,   176.000,   105.000,     0.000,     0.000,     0.000,     0.000,   1
   217,'1 ',1,   3,   3,   100.000,    75.000,     0.000,     0.000,     0.000,     0.000,   1
   218,'1 ',1,   3,   3,   131.000,    96.000,     0.000,     0.000,     0.000,     0.000,   1
   220,'1 ',1,   3,   3,   285.000,   100.000,     0.000,     0.000,     0.000,     0.000,   1
   221,'1 ',1,   3,   3,   171.000,    70.000,     0.000,     0.000,     0.000,     0.000,   1
   222,'1 ',1,   3,   3,   328.000,   188.000,     0.000,     0.000,     0.000,     0.000,   1
   223,'1 ',1,   3,   3,   428.000,   232.000,     0.000,     0.000,     0.000,     0.000,   1
   224,'1 ',1,   3,   3,   173.000,    99.000,     0.000,     0.000,     0.000,     0.000,   1
   225,'1 ',1,   3,   3,   410.000,    40.000,     0.000,     0.000,     0.000,     0.000,   1
   227,'1 ',1,   3,   3,   538.000,   369.000,     0.000,     0.000,     0.000,     0.000,   1
   228,'1 ',1,   3,   3,   223.000,   148.000,     0.000,     0.000,     0.000,     0.000,   1
   229,'1 ',1,   3,   3,    96.000,    46.000,     0.000,     0.000,     0.000,     0.000,   1
   231,'1 ',1,   3,   3,   159.000,   107.000,     0.000,     0.000,     0.000,     0.000,   1
   232,'1 ',1,   3,   3,   448.000,   143.000,     0.000,     0.000,     0.000,     0.000,   1
   233,'1 ',1,   3,   3,   404.000,   212.000,     0.000,     0.000,     0.000,     0.000,   1
   234,'1 ',1,   3,   3,   572.000,   244.000,     0.000,     0.000,     0.000,     0.000,   1
   235,'1 ',1,   3,   3,   269.000,   157.000,     0.000,     0.000,     0.000,     0.000,   1
   238,'1 ',1,   3,   3,   255.000,   149.000,     0.000,     0.000,     0.000,     0.000,   1
   243,'1 ',1,   3,   3,     8.000,     3.000,     0.000,     0.000,     0.000,     0.000,   1
   245,'1 ',1,   3,   3,    61.000,    30.000,     0.000,     0.000,     0.000,     0.000,   1
   246,'1 ',1,   3,   3,    77.000,    33.000,     0.000,     0.000,     0.000,     0.000,   1
   247,'1 ',1,   3,   3,    61.000,    30.000,     0.000,     0.000,     0.000,     0.000,   1
   248,'1 ',1,   3,   3,    29.000,    14.000,     0.000,     0.000,     0.000,     0.000,   1
   249,'1 ',1,   3,   3,    29.000,    14.000,     0.000,     0.000,     0.000,     0.000,   1
   250,'1 ',1,   3,   3,   -23.000,   -17.000,     0.000,     0.000,     0.000,     0.000,   1
   281,'1 ',1,   3,   3,   -33.100,   -29.400,     0.000,     0.000,     0.000,     0.000,   1
   319,'1 ',1,   1,   1,   163.515,   -33.889,     0.000,     0.000,     0.000,     0.000,   1
   320,'1 ',1,   1,   1,     3.389,   -17.792,     0.000,     0.000,     0.000,     0.000,   1
   322,'1 ',1,   1,   1,     3.389,    -5.507,     0.000,     0.000,     0.000,     0.000,   1
   323,'1 ',1,   1,   1,   -21.040,    37.419,     0.000,     0.000,     0.000,     0.000,   1
   324,'1 ',1,   1,   1,    34.878,    -1.694,     0.000,     0.000,     0.000,     0.000,   1
   526,'1 ',1,   1,   1,   146.000,   -40.000,     0.000,     0.000,     0.000,     0.000,   1
   528,'1 ',1,   1,   1,    28.100,   -20.500,     0.000,     0.000,     0.000,     0.000,   1
   531,'1 ',1,   1,   1,    19.769,     3.530,     0.000,     0.000,     0.000,     0.000,   1
   552,'1 ',1,   1,   1,   -15.674,    -1.977,     0.000,     0.000,     0.000,     0.000,   1
   562,'1 ',1,   1,   1,    50.500,    17.400,     0.000,     0.000,     0.000,     0.000,   1
   609,'1 ',1,   1,   1,    41.797,     0.847,     0.000,     0.000,     0.000,     0.000,   1
   664,'1 ',1,   3,   3,  -113.700,    76.700,     0.000,     0.000,     0.000,     0.000,   1
  1190,'1 ',1,   1,   1,   141.643,    41.189,     0.000,     0.000,     0.000,     0.000,   1
  1200,'1 ',1,   1,   1,  -141.205,    48.250,     0.000,     0.000,     0.000,     0.000,   1
  9003,'1 ',1,   1,   9,     2.710,     0.940,     0.000,     0.000,     0.000,     0.000,   1
  9004,'1 ',1,   1,   9,     0.860,     0.280,     0.000,     0.000,     0.000,     0.000,   1
  9021,'1 ',1,   1,   9,     4.750,     1.560,     0.000,     0.000,     0.000,     0.000,   1
  9022,'1 ',1,   1,   9,     1.530,     0.530,     0.000,     0.000,     0.000,     0.000,   1
  9024,'1 ',1,   1,   9,     1.350,     0.470,     0.000,     0.000,     0.000,     0.000,   1
  9025,'1 ',1,   1,   9,     0.450,     0.160,     0.000,     0.000,     0.000,     0.000,   1
  9026,'1 ',1,   1,   9,     0.450,     0.160,     0.000,     0.000,     0.000,     0.000,   1
  9031,'1 ',1,   1,   9,     1.840,     0.640,     0.000,     0.000,     0.000,     0.000,   1
  9032,'1 ',1,   1,   9,     1.390,     0.480,     0.000,     0.000,     0.000,     0.000,   1
  9033,'1 ',1,   1,   9,     1.890,     0.650,     0.000,     0.000,     0.000,     0.000,   1
  9034,'1 ',1,   1,   9,     1.550,     0.540,     0.000,     0.000,     0.000,     0.000,   1
  9035,'1 ',1,   1,   9,     1.660,     0.580,     0.000,     0.000,     0.000,     0.000,   1
  9036,'1 ',1,   1,   9,     3.030,     1.000,     0.000,     0.000,     0.000,     0.000,   1
  9037,'1 ',1,   1,   9,     1.860,     0.640,     0.000,     0.000,     0.000,     0.000,   1
  9038,'1 ',1,   1,   9,     2.580,     0.890,     0.000,     0.000,     0.000,     0.000,   1
  9041,'1 ',1,   1,   9,     1.010,     0.350,     0.000,     0.000,     0.000,     0.000,   1
  9042,'1 ',1,   1,   9,     0.810,     0.280,     0.000,     0.000,     0.000,     0.000,   1
  9043,'1 ',1,   1,   9,     1.600,     0.520,     0.000,     0.000,     0.000,     0.000,   1
  9052,'1 ',1,   1,   9,    30.000,    23.000,     0.000,     0.000,     0.000,     0.000,   1
  9071,'1 ',1,   1,   9,     1.020,     0.350,     0.000,     0.000,     0.000,     0.000,   1
  9072,'1 ',1,   1,   9,     1.020,     0.350,     0.000,     0.000,     0.000,     0.000,   1
  9121,'1 ',1,   1,   9,     3.800,     1.250,     0.000,     0.000,     0.000,     0.000,   1
  9533,'1 ',1,   1,   9,     1.190,     0.410,     0.000,     0.000,     0.000,     0.000,   1
 0 /End of Load data, Begin Generator data
 10000,'1 ',    -5.000,   135.350,   148.883,   -10.000,1.01530,     0,   162.528,   0.00140,   0.12000,   0.00000,   0.00000,1.00000,1,  100.0,  9999.000, -9999.000,   1,1.0000
 10001,'1 ',    -5.000,    68.452,    75.297,   -20.000,1.02050,     0,    82.361,   0.00140,   0.12000,   0.00000,   0.00000,1.00000,1,  100.0,  9999.000, -9999.000,   1,1.0000
 10002,'1 ',   -10.000,   235.409,   258.950,   -20.000,1.00100,     0,   282.745,   0.00140,   0.12000,   0.00000,   0.00000,1.00000,1,  100.0,  9999.000, -9999.000,   1,1.0000
 10003,'1 ',     0.000,    62.424,    68.665,   -25.000,0.95830,     0,    74.907,   0.00140,   0.12000,   0.00000,   0.00000,1.00000,1,  100.0,  9999.000, -9999.000,   1,1.0000
 10004,'1 ',     0.000,   225.055,   247.557,    12.000,0.96320,     0,   270.062,   0.00140,   0.12000,   0.00000,   0.00000,1.00000,1,  100.0,  9999.000, -9999.000,   1,1.0000
 10005,'1 ',   418.526,   172.701,   240.000,  -240.000,1.02500,     0,   835.000,   0.00190,   0.33900,   0.00000,   0.00000,1.00000,1,  100.0,  9999.000, -9999.000,   1,1.0000
 10006,'1 ',   172.991,    83.097,    96.000,   -11.000,1.05200,     0,   270.000,   0.00160,   0.18500,   0.00000,   0.00000,1.00000,1,  100.0,  9999.000, -9999.000,   1,1.0000
 10007,'1 ',   323.660,    66.380,   153.000,  -153.000,1.05200,     0,   410.000,   0.00190,   0.22840,   0.00000,   0.00000,1.00000,1,  100.0,  9999.000, -9999.000,   1,1.0000
 10008,'1 ',    75.893,    17.672,    56.000,   -30.000,1.00000,     0,   125.000,   0.00400,   0.13400,   0.00000,   0.00000,1.00000,1,  100.0,  9999.000, -9999.000,   1,1.0000
 10009,'1 ',   130.580,   106.754,   117.428,   -24.000,0.99000,     0,   270.000,   0.00160,   0.18500,   0.00000,   0.00000,1.00000,1,  100.0,  9999.000, -9999.000,   1,1.0000
 10010,'1 ',  2154.014,  1364.379,  2200.000,  -500.000,1.04350,     0,  2911.000,   0.00100,   0.19300,   0.00000,   0.00000,1.00000,1,  100.0,  9999.000, -9999.000,   1,1.0000
 10011,'1 ',   267.857,   213.912,   235.303,   -60.000,1.02330,     0,   410.000,   0.00190,   0.22840,   0.00000,   0.00000,1.00000,1,  100.0,  9999.000, -9999.000,   1,1.0000
 10012,'1 ',     0.000,   410.904,   451.994,   -25.000,1.01030,     0,   493.084,   0.00140,   0.12000,   0.00000,   0.00000,1.00000,1,  100.0,  9999.000, -9999.000,   1,1.0000
 10013,'1 ',  -925.030,   370.795,   407.874,  -125.000,1.05500,     0,  1195.895,   0.00100,   0.19300,   0.00000,   0.00000,1.00000,1,  100.0,  9999.000, -9999.000,   1,1.0000
 10014,'1 ',   313.616,    65.463,    75.000,   -50.000,1.05100,     0,   410.000,   0.00190,   0.22840,   0.00000,   0.00000,1.00000,1,  100.0,  9999.000, -9999.000,   1,1.0000
 10015,'1 ',   776.784,   175.313,   300.000,  -100.000,1.04350,     0,   911.000,   0.00100,   0.19300,   0.00000,   0.00000,1.00000,1,  100.0,  9999.000, -9999.000,   1,1.0000
 10016,'1 ',    93.750,    38.857,    42.742,   -15.000,1.05280,     0,   125.000,   0.00400,   0.13400,   0.00000,   0.00000,1.00000,1,  100.0,  9999.000, -9999.000,   1,1.0000
 10017,'1 ',   242.187,   -50.192,   100.000,   -55.211,1.05280,     0,   410.000,   0.00190,   0.22840,   0.00000,   0.00000,1.00000,1,  100.0,  9999.000, -9999.000,   1,1.0000
 10018,'1 ',   114.955,    48.613,    50.000,   -25.000,1.07350,     0,   270.000,   0.00160,   0.18500,   0.00000,   0.00000,1.00000,1,  100.0,  9999.000, -9999.000,   1,1.0000
 10019,'1 ',   415.178,   -40.795,   175.000,   -50.000,1.05350,     0,   835.000,   0.00190,   0.33900,   0.00000,   0.00000,1.00000,1,  100.0,  9999.000, -9999.000,   1,1.0000
 10020,'1 ',   241.071,   -18.550,    90.000,   -50.000,1.04350,     0,   410.000,   0.00190,   0.22840,   0.00000,   0.00000,1.00000,1,  100.0,  9999.000, -9999.000,   1,1.0000
 10021,'1 ',     0.000,    39.324,    43.257,   -10.000,0.96300,     0,    47.189,   0.00140,   0.12000,   0.00000,   0.00000,1.00000,1,  100.0,  9999.000, -9999.000,   1,1.0000
 10022,'1 ',   228.794,   100.544,   110.597,   -40.000,0.92900,     0,   410.000,   0.00190,   0.22840,   0.00000,   0.00000,1.00000,1,  100.0,  9999.000, -9999.000,   1,1.0000
 10023,'1 ',     0.000,   157.399,   173.138,   -50.000,0.98290,     0,   188.878,   0.00140,   0.12000,   0.00000,   0.00000,1.00000,1,  100.0,  9999.000, -9999.000,   1,1.0000
 10024,'1 ',   254.464,    37.140,    90.000,   -45.000,1.05220,     0,   410.000,   0.00190,   0.22840,   0.00000,   0.00000,1.00000,1,  100.0,  9999.000, -9999.000,   1,1.0000
 10025,'1 ',    93.750,    37.696,    41.465,   -15.000,1.00770,     0,   270.000,   0.00160,   0.18500,   0.00000,   0.00000,1.00000,1,  100.0,  9999.000, -9999.000,   1,1.0000
 10026,'1 ',   223.214,    39.810,    80.000,   -50.000,1.05220,     0,   410.000,   0.00190,   0.22840,   0.00000,   0.00000,1.00000,1,  100.0,  9999.000, -9999.000,   1,1.0000
 10027,'1 ',  1339.283,   289.660,   400.000,  -100.000,1.06500,     0,  1911.000,   0.00100,   0.19300,   0.00000,   0.00000,1.00000,1,  100.0,  9999.000, -9999.000,   1,1.0000
 10028,'1 ',  1339.283,   357.041,   400.000,  -100.000,1.06500,     0,  1911.000,   0.00100,   0.19300,   0.00000,   0.00000,1.00000,1,  100.0,  9999.000, -9999.000,   1,1.0000
 10029,'1 ',   530.133,    23.983,   300.000,  -300.000,1.05510,     0,   835.000,   0.00190,   0.33900,   0.00000,   0.00000,1.00000,1,  100.0,  9999.000, -9999.000,   1,1.0000
 10030,'1 ',  2202.005,   978.205,  1000.000, -1000.000,1.04350,     0,  2911.000,   0.00100,   0.19300,   0.00000,   0.00000,1.00000,1,  100.0,  9999.000, -9999.000,   1,1.0000
 10031,'1 ',   473.213,   145.920,   260.000,  -260.000,1.01500,     0,   835.000,   0.00190,   0.33900,   0.00000,   0.00000,1.00000,1,  100.0,  9999.000, -9999.000,   1,1.0000
 10032,'1 ',   303.571,    48.877,   150.000,  -150.000,1.01000,     0,   512.000,   0.00400,   0.20000,   0.00000,   0.00000,1.00000,1,  100.0,  9999.000, -9999.000,   1,1.0000
 10033,'1 ',   111.607,    67.473,    74.220,   -60.000,1.00800,     0,   270.000,   0.00160,   0.18500,   0.00000,   0.00000,1.00000,1,  100.0,  9999.000, -9999.000,   1,1.0000
 10034,'1 ',   502.231,   248.393,   320.000,  -320.000,1.00000,     0,   835.000,   0.00190,   0.33900,   0.00000,   0.00000,1.00000,1,  100.0,  9999.000, -9999.000,   1,1.0000
 10035,'1 ',   279.017,   146.865,   300.000,  -300.000,1.05000,     0,   410.000,   0.00190,   0.22840,   0.00000,   0.00000,1.00000,1,  100.0,  9999.000, -9999.000,   1,1.0000
 10036,'1 ',   338.169,   254.091,   300.000,  -300.000,1.00000,     0,   512.000,   0.00400,   0.20000,   0.00000,   0.00000,1.00000,1,  100.0,  9999.000, -9999.000,   1,1.0000
 10037,'1 ',   385.044,    50.606,   250.000,  -250.000,1.04000,     0,   835.000,   0.00190,   0.33900,   0.00000,   0.00000,1.00000,1,  100.0,  9999.000, -9999.000,   1,1.0000
 10038,'1 ',   334.821,   133.582,   500.000,  -500.000,1.00000,     0,   512.000,   0.00400,   0.20000,   0.00000,   0.00000,1.00000,1,  100.0,  9999.000, -9999.000,   1,1.0000
 10039,'1 ',   669.642,   314.003,   345.403,  -300.000,1.01650,     0,   911.000,   0.00100,   0.19300,   0.00000,   0.00000,1.00000,1,  100.0,  9999.000, -9999.000,   1,1.0000
 10040,'1 ',   279.017,   158.445,   200.000,  -200.000,1.01000,     0,   410.000,   0.00190,   0.22840,   0.00000,   0.00000,1.00000,1,  100.0,  9999.000, -9999.000,   1,1.0000
 10041,'1 ',   613.838,    72.474,   400.000,  -400.000,1.00000,     0,   911.000,   0.00100,   0.19300,   0.00000,   0.00000,1.00000,1,  100.0,  9999.000, -9999.000,   1,1.0000
 10042,'1 ',   641.494,   -14.136,   600.000,  -600.000,1.05000,     0,   911.000,   0.00100,   0.19300,   0.00000,   0.00000,1.00000,1,  100.0,  9999.000, -9999.000,   1,1.0000
 10043,'1 ',   189.732,    66.626,   100.000,    40.000,0.99300,     0,   410.000,   0.00190,   0.22840,   0.00000,   0.00000,1.00000,1,  100.0,  9999.000, -9999.000,   1,1.0000
 10044,'1 ',    93.750,    51.971,    80.000,    40.000,1.01000,     0,   270.000,   0.00160,   0.18500,   0.00000,   0.00000,1.00000,1,  100.0,  9999.000, -9999.000,   1,1.0000
 10045,'1 ',   521.204,   214.315,   235.746,  -210.000,1.05070,     0,   835.000,   0.00190,   0.33900,   0.00000,   0.00000,1.00000,1,  100.0,  9999.000, -9999.000,   1,1.0000
 10046,'1 ',   695.311,   125.494,   280.000,  -280.000,1.05070,     0,   911.000,   0.00100,   0.19300,   0.00000,   0.00000,1.00000,1,  100.0,  9999.000, -9999.000,   1,1.0000
 10047,'1 ',  1350.444,   550.527,   605.577,  -420.000,1.03230,     0,  1511.000,   0.00100,   0.19300,   0.00000,   0.00000,1.00000,1,  100.0,  9999.000, -9999.000,   1,1.0000
 10048,'1 ',   261.160,    84.371,   100.000,  -100.000,1.01450,     0,   410.000,   0.00190,   0.22840,   0.00000,   0.00000,1.00000,1,  100.0,  9999.000, -9999.000,   1,1.0000
 10049,'1 ',   415.178,   243.438,   267.782,  -224.000,1.05070,     0,   835.000,   0.00190,   0.33900,   0.00000,   0.00000,1.00000,1,  100.0,  9999.000, -9999.000,   1,1.0000
 10050,'1 ',   368.303,   596.557,   656.208,     0.000,1.05070,     0,   835.000,   0.00190,   0.33900,   0.00000,   0.00000,1.00000,1,  100.0,  9999.000, -9999.000,   1,1.0000
 10051,'1 ',   206.473,    29.488,   120.000,     0.000,1.05070,     0,   410.000,   0.00190,   0.22840,   0.00000,   0.00000,1.00000,1,  100.0,  9999.000, -9999.000,   1,1.0000
 10052,'1 ',   457.588,   136.636,   224.000,  -224.000,1.02900,     0,   835.000,   0.00190,   0.33900,   0.00000,   0.00000,1.00000,1,  100.0,  9999.000, -9999.000,   1,1.0000
 10053,'1 ',   558.035,   232.123,   255.327,  -200.000,1.05000,     0,   835.000,   0.00190,   0.33900,   0.00000,   0.00000,1.00000,1,  100.0,  9999.000, -9999.000,   1,1.0000
 10054,'1 ',    41.295,    59.230,    65.151,     0.000,1.01450,     0,   125.000,   0.00400,   0.13400,   0.00000,   0.00000,1.00000,1,  100.0,  9999.000, -9999.000,   1,1.0000
 10055,'1 ',   631.457,   108.664,   119.508,     0.000,1.05070,     0,   835.000,   0.00190,   0.33900,   0.00000,   0.00000,1.00000,1,  100.0,  9999.000, -9999.000,   1,1.0000
 10056,'1 ',    50.223,    41.280,    45.406,     0.000,0.99670,     0,   125.000,   0.00400,   0.13400,   0.00000,   0.00000,1.00000,1,  100.0,  9999.000, -9999.000,   1,1.0000
 10057,'1 ',   184.151,   127.676,   140.442,   -90.000,1.02120,     0,   410.000,   0.00190,   0.22840,   0.00000,   0.00000,1.00000,1,  100.0,  9999.000, -9999.000,   1,1.0000
 10058,'1 ',   446.428,   229.728,   252.700,  -150.000,1.01450,     0,   835.000,   0.00190,   0.33900,   0.00000,   0.00000,1.00000,1,  100.0,  9999.000, -9999.000,   1,1.0000
 10059,'1 ',   446.428,   213.722,   235.092,     0.000,1.00170,     0,   835.000,   0.00190,   0.33900,   0.00000,   0.00000,1.00000,1,  100.0,  9999.000, -9999.000,   1,1.0000
 10060,'1 ',   129.464,   122.124,   134.335,     0.000,0.98930,     0,   270.000,   0.00160,   0.18500,   0.00000,   0.00000,1.00000,1,  100.0,  9999.000, -9999.000,   1,1.0000
 10061,'1 ',  1441.962,   391.780,   600.000,  -100.000,1.05070,     0,  1511.000,   0.00100,   0.19300,   0.00000,   0.00000,1.00000,1,  100.0,  9999.000, -9999.000,   1,1.0000
 10062,'1 ',   781.249,   301.097,   325.000,  -125.000,1.05070,     0,   911.000,   0.00100,   0.19300,   0.00000,   0.00000,1.00000,1,  100.0,  9999.000, -9999.000,   1,1.0000
 10063,'1 ',   617.186,   184.834,   300.000,  -200.000,1.01450,     0,   911.000,   0.00100,   0.19300,   0.00000,   0.00000,1.00000,1,  100.0,  9999.000, -9999.000,   1,1.0000
 10064,'1 ',    -4.200,     4.786,     5.264,    -2.000,0.99450,     0,    25.000,   0.00140,   0.12000,   0.00000,   0.00000,1.00000,1,  100.0,  9999.000, -9999.000,   1,1.0000
 10065,'1 ',   -35.810,    20.952,    23.046,   -17.350,1.00000,     0,   125.000,   0.00400,   0.13400,   0.00000,   0.00000,1.00000,1,  100.0,  9999.000, -9999.000,   1,1.0000
 10066,'1 ',   -26.480,    16.773,    18.450,   -12.800,1.00000,     0,   125.000,   0.00400,   0.13400,   0.00000,   0.00000,1.00000,1,  100.0,  9999.000, -9999.000,   1,1.0000
 10067,'1 ',    55.803,    33.911,    38.000,   -38.000,1.00000,     0,   125.000,   0.00400,   0.13400,   0.00000,   0.00000,1.00000,1,  100.0,  9999.000, -9999.000,   1,1.0000
 10068,'1 ',     8.929,     6.306,     6.935,    -6.000,1.00000,     0,    25.000,   0.00140,   0.12000,   0.00000,   0.00000,1.00000,1,  100.0,  9999.000, -9999.000,   1,1.0000
 0 /End of Generator data, Begin Branch data
     1,      5,'1 ',   0.00100,   0.00600,   0.00000,    0.00,    0.00,    0.00,  0.00000,  0.00000,  0.00000,  0.00000,1,   0.00,   1,1.0000
     2,      6,'1 ',   0.00100,   0.00900,   0.00000,    0.00,    0.00,    0.00,  0.00000,  0.00000,  0.00000,  0.00000,1,   0.00,   1,1.0000
     2,      8,'1 ',   0.00600,   0.02700,   0.05400,    0.00,    0.00,    0.00,  0.00000,  0.00000,  0.00000,  0.00000,1,   0.00,   1,1.0000
     3,      7,'1 ',   0.00000,   0.00300,   0.00000,    0.00,    0.00,    0.00,  0.00000,  0.00000,  0.00000,  0.00000,1,   0.00,   1,1.0000
     3,     19,'1 ',   0.00800,   0.06900,   0.13900,    0.00,    0.00,    0.00,  0.00000,  0.00000,  0.00000,  0.00000,1,   0.00,   1,1.0000
     3,    150,'1 ',   0.00100,   0.00700,   0.00000,    0.00,    0.00,    0.00,  0.00000,  0.00000,  0.00000,  0.00000,1,   0.00,   1,1.0000
     4,     16,'1 ',   0.00200,   0.01900,   1.12700,    0.00,    0.00,    0.00,  0.00000,  0.00000,  0.00000,  0.00000,1,   0.00,   1,1.0000
     5,      9,'1 ',   0.00600,   0.02900,   0.01800,    0.00,    0.00,    0.00,  0.00000,  0.00000,  0.00000,  0.00000,1,   0.00,   1,1.0000
     7,     12,'1 ',   0.00100,   0.00900,   0.07000,    0.00,    0.00,    0.00,  0.00000,  0.00000,  0.00000,  0.00000,1,   0.00,   1,1.0000
     7,    131,'1 ',   0.00100,   0.00700,   0.01400,    0.00,    0.00,    0.00,  0.00000,  0.00000,  0.00000,  0.00000,1,   0.00,   1,1.0000
     8,     11,'1 ',   0.01300,   0.05950,   0.03300,    0.00,    0.00,    0.00,  0.00000,  0.00000,  0.00000,  0.00000,1,   0.00,   1,1.0000
     8,     14,'1 ',   0.01300,   0.04200,   0.08100,    0.00,    0.00,    0.00,  0.00000,  0.00000,  0.00000,  0.00000,1,   0.00,   1,1.0000
     9,     11,'1 ',   0.00600,   0.02700,   0.01300,    0.00,    0.00,    0.00,  0.00000,  0.00000,  0.00000,  0.00000,1,   0.00,   1,1.0000
    11,     13,'1 ',   0.00800,   0.03400,   0.01800,    0.00,    0.00,    0.00,  0.00000,  0.00000,  0.00000,  0.00000,1,   0.00,   1,1.0000
    12,     21,'1 ',   0.00200,   0.01500,   0.11800,    0.00,    0.00,    0.00,  0.00000,  0.00000,  0.00000,  0.00000,1,   0.00,   1,1.0000
    13,     20,'1 ',   0.00600,   0.03400,   0.01600,    0.00,    0.00,    0.00,  0.00000,  0.00000,  0.00000,  0.00000,1,   0.00,   1,1.0000
    14,     15,'1 ',   0.01400,   0.04200,   0.09700,    0.00,    0.00,    0.00,  0.00000,  0.00000,  0.00000,  0.00000,1,   0.00,   1,1.0000
    15,     37,'1 ',   0.06500,   0.24800,   0.12100,    0.00,    0.00,    0.00,  0.00000,  0.00000,  0.00000,  0.00000,1,   0.00,   1,1.0000
    15,     89,'1 ',   0.09900,   0.24800,   0.03500,    0.00,    0.00,    0.00,  0.00000,  0.00000,  0.00000,  0.00000,1,   0.00,   1,1.0000
    15,     90,'1 ',   0.09600,   0.36300,   0.04800,    0.00,    0.00,    0.00,  0.00000,  0.00000,  0.00000,  0.00000,1,   0.00,   1,1.0000
    16,     42,'1 ',   0.00200,   0.02200,   1.28000,    0.00,    0.00,    0.00,  0.00000,  0.00000,  0.00000,  0.00000,1,   0.00,   1,1.0000
    19,     21,'1 ',   0.00200,   0.01800,   0.03600,    0.00,    0.00,    0.00,  0.00000,  0.00000,  0.00000,  0.00000,1,   0.00,   1,1.0000
    19,     87,'1 ',   0.01300,   0.08000,   0.15100,    0.00,    0.00,    0.00,  0.00000,  0.00000,  0.00000,  0.00000,1,   0.00,   1,1.0000
    20,     22,'1 ',   0.01600,   0.03300,   0.01500,    0.00,    0.00,    0.00,  0.00000,  0.00000,  0.00000,  0.00000,1,   0.00,   1,1.0000
    20,     27,'1 ',   0.06900,   0.18600,   0.09800,    0.00,    0.00,    0.00,  0.00000,  0.00000,  0.00000,  0.00000,1,   0.00,   1,1.0000
    21,     24,'1 ',   0.00400,   0.03400,   0.28000,    0.00,    0.00,    0.00,  0.00000,  0.00000,  0.00000,  0.00000,1,   0.00,   1,1.0000
    22,     23,'1 ',   0.05200,   0.11100,   0.05000,    0.00,    0.00,    0.00,  0.00000,  0.00000,  0.00000,  0.00000,1,   0.00,   1,1.0000
    23,     25,'1 ',   0.01900,   0.03900,   0.01800,    0.00,    0.00,    0.00,  0.00000,  0.00000,  0.00000,  0.00000,1,   0.00,   1,1.0000
    24,    319,'1 ',   0.00700,   0.06800,   0.13400,    0.00,    0.00,    0.00,  0.00000,  0.00000,  0.00000,  0.00000,1,   0.00,   1,1.0000
    25,     26,'1 ',   0.03600,   0.07100,   0.03400,    0.00,    0.00,    0.00,  0.00000,  0.00000,  0.00000,  0.00000,1,   0.00,   1,1.0000
    26,     27,'1 ',   0.04500,   0.12000,   0.06500,    0.00,    0.00,    0.00,  0.00000,  0.00000,  0.00000,  0.00000,1,   0.00,   1,1.0000
    26,    320,'1 ',   0.04300,   0.13000,   0.01400,    0.00,    0.00,    0.00,  0.00000,  0.00000,  0.00000,  0.00000,1,   0.00,   1,1.0000
    33,     34,'1 ',   0.00000,   0.06300,   0.00000,    0.00,    0.00,    0.00,  0.00000,  0.00000,  0.00000,  0.00000,1,   0.00,   1,1.0000
    33,     38,'1 ',   0.00250,   0.01200,   0.01300,    0.00,    0.00,    0.00,  0.00000,  0.00000,  0.00000,  0.00000,1,   0.00,   1,1.0000
    33,     40,'1 ',   0.00600,   0.02900,   0.02000,    0.00,    0.00,    0.00,  0.00000,  0.00000,  0.00000,  0.00000,1,   0.00,   1,1.0000
    33,     41,'1 ',   0.00700,   0.04300,   0.02600,    0.00,    0.00,    0.00,  0.00000,  0.00000,  0.00000,  0.00000,1,   0.00,   1,1.0000
    34,     42,'1 ',   0.00100,   0.00800,   0.04200,    0.00,    0.00,    0.00,  0.00000,  0.00000,  0.00000,  0.00000,1,   0.00,   1,1.0000
    35,     72,'1 ',   0.01200,   0.06000,   0.00800,    0.00,    0.00,    0.00,  0.00000,  0.00000,  0.00000,  0.00000,1,   0.00,   1,1.0000
    35,     76,'1 ',   0.00600,   0.01400,   0.00200,    0.00,    0.00,    0.00,  0.00000,  0.00000,  0.00000,  0.00000,1,   0.00,   1,1.0000
    35,     77,'1 ',   0.01000,   0.02900,   0.00300,    0.00,    0.00,    0.00,  0.00000,  0.00000,  0.00000,  0.00000,1,   0.00,   1,1.0000
    36,     88,'1 ',   0.00400,   0.02700,   0.04300,    0.00,    0.00,    0.00,  0.00000,  0.00000,  0.00000,  0.00000,1,   0.00,   1,1.0000
    37,     38,'1 ',   0.00800,   0.04700,   0.00800,    0.00,    0.00,    0.00,  0.00000,  0.00000,  0.00000,  0.00000,1,   0.00,   1,1.0000
    37,     40,'1 ',   0.02200,   0.06400,   0.00700,    0.00,    0.00,    0.00,  0.00000,  0.00000,  0.00000,  0.00000,1,   0.00,   1,1.0000
    37,     41,'1 ',   0.01000,   0.03600,   0.02000,    0.00,    0.00,    0.00,  0.00000,  0.00000,  0.00000,  0.00000,1,   0.00,   1,1.0000
    37,     49,'1 ',   0.01700,   0.08100,   0.04800,    0.00,    0.00,    0.00,  0.00000,  0.00000,  0.00000,  0.00000,1,   0.00,   1,1.0000
    37,     89,'1 ',   0.10200,   0.25400,   0.03300,    0.00,    0.00,    0.00,  0.00000,  0.00000,  0.00000,  0.00000,1,   0.00,   1,1.0000
    37,     90,'1 ',   0.04700,   0.12700,   0.01600,    0.00,    0.00,    0.00,  0.00000,  0.00000,  0.00000,  0.00000,1,   0.00,   1,1.0000
    38,     41,'1 ',   0.00800,   0.03700,   0.02000,    0.00,    0.00,    0.00,  0.00000,  0.00000,  0.00000,  0.00000,1,   0.00,   1,1.0000
    38,     43,'1 ',   0.03200,   0.08700,   0.04000,    0.00,    0.00,    0.00,  0.00000,  0.00000,  0.00000,  0.00000,1,   0.00,   1,1.0000
    39,     42,'1 ',   0.00060,   0.00640,   0.40400,    0.00,    0.00,    0.00,  0.00000,  0.00000,  0.00000,  0.00000,1,   0.00,   1,1.0000
    40,     48,'1 ',   0.02600,   0.15400,   0.02200,    0.00,    0.00,    0.00,  0.00000,  0.00000,  0.00000,  0.00000,1,   0.00,   1,1.0000
    41,     42,'1 ',   0.00000,   0.02900,   0.00000,    0.00,    0.00,    0.00,  0.00000,  0.00000,  0.00000,  0.00000,1,   0.00,   1,1.0000
    41,     49,'1 ',   0.06500,   0.19100,   0.02000,    0.00,    0.00,    0.00,  0.00000,  0.00000,  0.00000,  0.00000,1,   0.00,   1,1.0000
    41,     51,'1 ',   0.03100,   0.08900,   0.03600,    0.00,    0.00,    0.00,  0.00000,  0.00000,  0.00000,  0.00000,1,   0.00,   1,1.0000
    42,     46,'1 ',   0.00200,   0.01400,   0.80600,    0.00,    0.00,    0.00,  0.00000,  0.00000,  0.00000,  0.00000,1,   0.00,   1,1.0000
    43,     44,'1 ',   0.02600,   0.07200,   0.03500,    0.00,    0.00,    0.00,  0.00000,  0.00000,  0.00000,  0.00000,1,   0.00,   1,1.0000
    43,     48,'1 ',   0.09500,   0.26200,   0.03200,    0.00,    0.00,    0.00,  0.00000,  0.00000,  0.00000,  0.00000,1,   0.00,   1,1.0000
    43,     53,'1 ',   0.01300,   0.03900,   0.01600,    0.00,    0.00,    0.00,  0.00000,  0.00000,  0.00000,  0.00000,1,   0.00,   1,1.0000
    44,     47,'1 ',   0.02700,   0.08400,   0.03900,    0.00,    0.00,    0.00,  0.00000,  0.00000,  0.00000,  0.00000,1,   0.00,   1,1.0000
    44,     54,'1 ',   0.02800,   0.08400,   0.03700,    0.00,    0.00,    0.00,  0.00000,  0.00000,  0.00000,  0.00000,1,   0.00,   1,1.0000
    45,     60,'1 ',   0.00700,   0.04100,   0.31200,    0.00,    0.00,    0.00,  0.00000,  0.00000,  0.00000,  0.00000,1,   0.00,   1,1.0000
    45,     74,'1 ',   0.00900,   0.05400,   0.41100,    0.00,    0.00,    0.00,  0.00000,  0.00000,  0.00000,  0.00000,1,   0.00,   1,1.0000
    46,     81,'1 ',   0.00500,   0.04200,   0.69000,    0.00,    0.00,    0.00,  0.00000,  0.00000,  0.00000,  0.00000,1,   0.00,   1,1.0000
    47,     73,'1 ',   0.05200,   0.14500,   0.07300,    0.00,    0.00,    0.00,  0.00000,  0.00000,  0.00000,  0.00000,1,   0.00,   1,1.0000
    47,    113,'1 ',   0.04300,   0.11800,   0.01300,    0.00,    0.00,    0.00,  0.00000,  0.00000,  0.00000,  0.00000,1,   0.00,   1,1.0000
    48,    107,'1 ',   0.02500,   0.06200,   0.00700,    0.00,    0.00,    0.00,  0.00000,  0.00000,  0.00000,  0.00000,1,   0.00,   1,1.0000
    49,     51,'1 ',   0.03100,   0.09400,   0.04300,    0.00,    0.00,    0.00,  0.00000,  0.00000,  0.00000,  0.00000,1,   0.00,   1,1.0000
    51,     52,'1 ',   0.03700,   0.10900,   0.04900,    0.00,    0.00,    0.00,  0.00000,  0.00000,  0.00000,  0.00000,1,   0.00,   1,1.0000
    52,     55,'1 ',   0.02700,   0.08000,   0.03600,    0.00,    0.00,    0.00,  0.00000,  0.00000,  0.00000,  0.00000,1,   0.00,   1,1.0000
    53,     54,'1 ',   0.02500,   0.07300,   0.03500,    0.00,    0.00,    0.00,  0.00000,  0.00000,  0.00000,  0.00000,1,   0.00,   1,1.0000
    54,     55,'1 ',   0.03500,   0.10300,   0.04700,    0.00,    0.00,    0.00,  0.00000,  0.00000,  0.00000,  0.00000,1,   0.00,   1,1.0000
    55,     57,'1 ',   0.06500,   0.16900,   0.08200,    0.00,    0.00,    0.00,  0.00000,  0.00000,  0.00000,  0.00000,1,   0.00,   1,1.0000
    57,     58,'1 ',   0.04600,   0.08000,   0.03600,    0.00,    0.00,    0.00,  0.00000,  0.00000,  0.00000,  0.00000,1,   0.00,   1,1.0000
    57,     63,'1 ',   0.15900,   0.53700,   0.07100,    0.00,    0.00,    0.00,  0.00000,  0.00000,  0.00000,  0.00000,1,   0.00,   1,1.0000
    58,     59,'1 ',   0.00900,   0.02600,   0.00500,    0.00,    0.00,    0.00,  0.00000,  0.00000,  0.00000,  0.00000,1,   0.00,   1,1.0000
    59,     61,'1 ',   0.00200,   0.01300,   0.01500,    0.00,    0.00,    0.00,  0.00000,  0.00000,  0.00000,  0.00000,1,   0.00,   1,1.0000
    60,     62,'1 ',   0.00900,   0.06500,   0.48500,    0.00,    0.00,    0.00,  0.00000,  0.00000,  0.00000,  0.00000,1,   0.00,   1,1.0000
    62,     64,'1 ',   0.01600,   0.10500,   0.20300,    0.00,    0.00,    0.00,  0.00000,  0.00000,  0.00000,  0.00000,1,   0.00,   1,1.0000
...